4
 energy: -13.349149310898 gnorm: 0.000502022323 xtb: 6.5.1 (579679a)
Fe           2.73292919494009        7.81690557181600        4.99999999991402
O            4.23822629938734        8.62616541285678        4.99975863372067
C            5.28034049639189        9.19333556707946        5.00051367720569
O            6.33254571928068        9.75535975824776        4.99972768915961
